Version 4
SHEET 1 1612 728
WIRE -224 -16 -320 -16
WIRE -80 -16 -144 -16
WIRE 48 -16 -80 -16
WIRE 64 -16 48 -16
WIRE 368 -16 352 -16
WIRE 464 -16 448 -16
WIRE 576 -16 464 -16
WIRE 640 -16 576 -16
WIRE 736 -16 720 -16
WIRE 464 0 464 -16
WIRE 48 80 48 -16
WIRE 64 80 48 80
WIRE 464 80 352 80
WIRE 464 96 464 80
WIRE -320 144 -320 -16
WIRE 736 144 736 -16
WIRE -80 160 -80 -16
WIRE 576 160 576 -16
WIRE 64 176 0 176
WIRE 368 272 352 272
WIRE 64 368 48 368
WIRE 368 368 368 272
WIRE 368 368 352 368
WIRE -320 448 -320 224
WIRE -80 448 -80 224
WIRE -80 448 -320 448
WIRE 0 448 0 256
WIRE 0 448 -80 448
WIRE 48 448 48 368
WIRE 48 448 0 448
WIRE 208 448 208 432
WIRE 208 448 48 448
WIRE 368 448 368 368
WIRE 368 448 208 448
WIRE 464 448 464 176
WIRE 464 448 368 448
WIRE 576 448 576 224
WIRE 576 448 464 448
WIRE 736 448 736 224
WIRE 736 448 576 448
WIRE 208 464 208 448
FLAG 208 464 0
FLAG -80 -16 Vin
FLAG 576 -16 Vout
SYMBOL PowerProducts\\LTC3639 208 176 R0
SYMATTR InstName U1
SYMBOL ind 352 0 R270
WINDOW 0 32 56 VTop 2
WINDOW 3 5 56 VBottom 2
SYMATTR InstName L1
SYMATTR Value {L}
SYMATTR SpiceLine Ipk=0.4 Rser=1.1 Rpar=191756 Cpar=5.018p
SYMBOL cap -96 160 R0
SYMATTR InstName C1
SYMATTR Value {Cin}
SYMATTR SpiceLine V=50 Irms=3.41 Rser=0.0133158 Lser=0
SYMBOL cap 560 160 R0
SYMATTR InstName C2
SYMATTR Value {Cout}
SYMATTR SpiceLine V=10 Irms=8.88 Rser=0.00522854 Lser=0
SYMBOL res 448 -16 R0
SYMATTR InstName R1
SYMATTR Value 1.5Meg
SYMBOL res 448 80 R0
SYMATTR InstName R2
SYMATTR Value 280k
SYMBOL res -128 -32 R90
WINDOW 0 0 56 VBottom 2
WINDOW 3 32 56 VTop 2
SYMATTR InstName R3
SYMATTR Value {Rsense}
SYMBOL res 736 -32 R90
WINDOW 0 0 56 VBottom 2
WINDOW 3 32 56 VTop 2
SYMATTR InstName R4
SYMATTR Value {Rsense}
SYMBOL res 720 128 R0
SYMATTR InstName R5
SYMATTR Value {Rload}
SYMBOL voltage -320 128 R0
WINDOW 123 0 0 Left 2
WINDOW 39 24 124 Left 2
SYMATTR InstName V1
SYMATTR Value 33.6V
SYMATTR SpiceLine Rser=0.01
SYMBOL res -16 160 R0
SYMATTR InstName R6
SYMATTR Value 47k
TEXT 56 -184 Left 2 !.tran 0 3.5ms 3.2ms startup
TEXT 56 -160 Left 2 !.param Cin=1uF Cout=10uF L=220uH Rsense=0.001 Rload=1k
TEXT 56 -136 Left 2 !*.STEP PARAM Cout LIST 1uF 10uF\n*.STEP PARAM L LIST 470uH 1mH
TEXT 64 496 Left 2 !.MEAS Iin AVG I(R3)\n.MEAS Vin AVG V(Vin)\n.MEAS Pin PARAM Vin*Iin
TEXT 72 608 Left 2 !.MEAS Iout AVG I(R4)\n.MEAS Vout AVG V(Vout)\n.MEAS Pout PARAM Vout*Iout
TEXT 72 712 Left 2 !.MEAS Efficiency PARAM Pout/Pin
