Version 4
SHEET 1 1612 776
WIRE -224 -16 -320 -16
WIRE -80 -16 -144 -16
WIRE 48 -16 -80 -16
WIRE 64 -16 48 -16
WIRE 384 -16 352 -16
WIRE 416 -16 384 -16
WIRE 512 -16 496 -16
WIRE 624 -16 512 -16
WIRE 688 -16 624 -16
WIRE 784 -16 768 -16
WIRE 512 0 512 -16
WIRE 48 80 48 -16
WIRE 64 80 48 80
WIRE 512 80 352 80
WIRE 512 96 512 80
WIRE -320 144 -320 -16
WIRE 784 144 784 -16
WIRE -80 160 -80 -16
WIRE 624 160 624 -16
WIRE 64 176 0 176
WIRE 416 272 352 272
WIRE 64 368 48 368
WIRE 416 368 416 272
WIRE 416 368 352 368
WIRE -320 448 -320 224
WIRE -80 448 -80 224
WIRE -80 448 -320 448
WIRE 0 448 0 256
WIRE 0 448 -80 448
WIRE 48 448 48 368
WIRE 48 448 0 448
WIRE 208 448 208 432
WIRE 208 448 48 448
WIRE 416 448 416 368
WIRE 416 448 208 448
WIRE 512 448 512 176
WIRE 512 448 416 448
WIRE 624 448 624 224
WIRE 624 448 512 448
WIRE 784 448 784 224
WIRE 784 448 624 448
WIRE 208 464 208 448
FLAG 208 464 0
FLAG -80 -16 Vin
FLAG 624 -16 Vout
FLAG 384 -16 SW
SYMBOL PowerProducts\\LTC3639 208 176 R0
SYMATTR InstName U1
SYMBOL ind 400 0 R270
WINDOW 0 32 56 VTop 2
WINDOW 3 5 56 VBottom 2
SYMATTR InstName L1
SYMATTR Value {L}
SYMATTR SpiceLine Ipk=0.4 Rser=1.1 Rpar=191756 Cpar=5.018p
SYMBOL cap -96 160 R0
SYMATTR InstName C1
SYMATTR Value {Cin}
SYMATTR SpiceLine V=50 Irms=3.41 Rser=0.0133158 Lser=0
SYMBOL cap 608 160 R0
SYMATTR InstName C2
SYMATTR Value {Cout}
SYMATTR SpiceLine V=10 Irms=8.88 Rser=0.00522854 Lser=0
SYMBOL res 496 -16 R0
SYMATTR InstName R1
SYMATTR Value 1.5Meg
SYMBOL res 496 80 R0
SYMATTR InstName R2
SYMATTR Value 280k
SYMBOL res -128 -32 R90
WINDOW 0 0 56 VBottom 2
WINDOW 3 32 56 VTop 2
SYMATTR InstName R3
SYMATTR Value {Rsense}
SYMBOL res 784 -32 R90
WINDOW 0 0 56 VBottom 2
WINDOW 3 32 56 VTop 2
SYMATTR InstName R4
SYMATTR Value {Rsense}
SYMBOL res 768 128 R0
SYMATTR InstName R5
SYMATTR Value {Rload}
SYMBOL voltage -320 128 R0
WINDOW 123 0 0 Left 2
WINDOW 39 24 124 Left 2
SYMATTR SpiceLine Rser=0.01
SYMATTR InstName V1
SYMATTR Value {Vbat}
SYMBOL res -16 160 R0
SYMATTR InstName R6
SYMATTR Value 47k
TEXT 40 -240 Left 2 !.tran 0 5ms 3.2ms startup
TEXT 40 -216 Left 2 !.param Vbat=28.8V Cin=1uF Cout=4.7uF L=100uH Rsense=0.001 Rload=1k
TEXT 40 -192 Left 2 !*.STEP PARAM Cout LIST 1uF 10uF\n*.STEP PARAM L LIST 470uH 1mH
TEXT 64 496 Left 2 !.MEAS Iin AVG I(R3)\n.MEAS Vin AVG V(Vin)\n.MEAS Pin PARAM Vin*Iin
TEXT 72 608 Left 2 !.MEAS Iout AVG I(R4)\n.MEAS Vout AVG V(Vout)\n.MEAS Pout PARAM Vout*Iout
TEXT 72 712 Left 2 !.MEAS Efficiency PARAM Pout/Pin
TEXT 72 736 Left 2 !.MEAS Tperiod TRIG V(SW)=1V TD=45µs RISE=1 TARG V(SW)=1V TD=45µs RISE=2
TEXT 72 760 Left 2 !.MEAS fsw PARAM 1/Tperiod
TEXT 48 -136 Left 2 !.STEP PARAM Vbat LIST 18.8V 33.6V
